Circuit: * C:\Users\cb199\OneDrive\Desktop\EPS-sims\MPPT-v1.asc

Warning: Multiple definitions of model "u2:p" Type: BJT
V2: both pins shorted together -- ignoring.
Direct Newton iteration failed to find .op point.  (Use ".option noopiter" to skip.)
Starting Gmin stepping
Gmin = 10
Gmin = 1.07374
Gmin = 0.115292
Gmin = 0.0123794
Gmin = 0.00132923
Gmin = 0.000142725
Gmin = 1.5325e-005
Gmin = 1.6455e-006
Gmin = 1.76685e-007
Gmin = 1.89714e-008
Gmin = 2.03704e-009
Gmin = 2.18725e-010
Gmin = 2.34854e-011
Gmin = 2.52173e-012
Gmin = 2.70769e-013
Gmin = 0
Gmin stepping succeeded in finding the operating point.

Ignoring empty pin current: Ix(u2:1)
Ignoring empty pin current: Ix(u2:3)
Ignoring empty pin current: Ix(u2:6)
Ignoring empty pin current: Ix(u2:7)
Ignoring empty pin current: Ix(u2:9)
Ignoring empty pin current: Ix(u2:1)
Ignoring empty pin current: Ix(u2:3)
Ignoring empty pin current: Ix(u2:6)
Ignoring empty pin current: Ix(u2:7)
Ignoring empty pin current: Ix(u2:9)
Heightened Def Con from 0.00100585 to 0.00100585
Heightened Def Con from 0.0434949 to 0.0434949

Date: Sun Sep 18 01:45:55 2022
Total elapsed time: 202.038 seconds.

tnom = 27
temp = 27
method = modified trap
totiter = 9060186
traniter = 9059810
tranpoints = 3628960
accept = 2900044
rejected = 728918
matrix size = 79
fillins = 20
solver = Normal
Thread vector: 6.3/3.6[4] 2.9/1.8[4] 0.6/0.7[1] 0.1/0.4[1]  2592/500
Matrix Compiler1: 4.40 KB object code size  0.8/0.3/[0.3]
Matrix Compiler2: off  [0.3]/0.4/0.4

