Circuit: * C:\Users\cb199\OneDrive\Desktop\EPS-sims\MPPT-v2.asc

Warning: Multiple definitions of model "u2:p" Type: BJT
WARNING: Node NC_06 is floating.

WARNING: Less than two connections to node NC_05.  This node is used by V2.
WARNING: Less than two connections to node NC_06.  This node is used by V2.
Direct Newton iteration failed to find .op point.  (Use ".option noopiter" to skip.)
Starting Gmin stepping
Gmin = 10
Gmin = 1.07374
Gmin = 0.115292
Gmin = 0.0123794
Gmin = 0.00132923
Gmin = 0.000142725
Gmin = 1.5325e-005
Gmin = 1.6455e-006
Gmin = 1.76685e-007
Gmin = 1.89714e-008
Gmin = 2.03704e-009
Gmin = 2.18725e-010
Gmin = 2.34854e-011
Gmin = 2.52173e-012
Gmin = 2.70769e-013
Gmin = 0
Gmin stepping succeeded in finding the operating point.

Ignoring empty pin current: Ix(u2:1)
Ignoring empty pin current: Ix(u2:3)
Ignoring empty pin current: Ix(u2:6)
Ignoring empty pin current: Ix(u2:7)
Ignoring empty pin current: Ix(u2:9)
Ignoring empty pin current: Ix(u2:1)
Ignoring empty pin current: Ix(u2:3)
Ignoring empty pin current: Ix(u2:6)
Ignoring empty pin current: Ix(u2:7)
Ignoring empty pin current: Ix(u2:9)
Heightened Def Con from 0.0770224 to 0.0770224

Date: Sun Sep 18 02:41:23 2022
Total elapsed time: 159.861 seconds.

tnom = 27
temp = 27
method = modified trap
totiter = 16419678
traniter = 16419101
tranpoints = 6577065
accept = 5255996
rejected = 1321070
matrix size = 84
fillins = 16
solver = Normal
Thread vector: 7.6/3.8[4] 3.5/2.2[4] 0.7/0.8[1] 0.2/0.5[1]  2592/500
Matrix Compiler1:     265 opcodes  0.9/[0.3]/0.4
Matrix Compiler2: off  [0.3]/0.7/0.6

